
 OpenBabel08152415113D

 22 21  0  0  0  0  0  0  0  0999 V2000
   -0.4129    1.0457   -0.5734 C   0  0  0  0  0  0  0  0  0  0  0  0
   -0.2890    1.6529    0.8493 C   0  0  1  0  0  0  0  0  0  0  0  0
    0.2641    0.5774    1.8381 C   0  0  1  0  0  0  0  0  0  0  0  0
    1.6634    0.0755    1.5163 C   0  0  0  0  0  0  0  0  0  0  0  0
    2.7573    0.8570    1.6513 O   0  0  0  0  0  0  0  0  0  0  0  0
    1.8121   -1.0822    1.1585 O   0  0  0  0  0  0  0  0  0  0  0  0
    0.1832    1.0356    3.2281 N   0  0  0  0  0  0  0  0  0  0  0  0
   -0.4299   -0.2903    1.7499 H   0  0  0  0  0  0  0  0  0  0  0  0
    0.5202    2.9653    0.8358 C   0  0  0  0  0  0  0  0  0  0  0  0
   -1.1278    1.9539   -1.5765 C   0  0  0  0  0  0  0  0  0  0  0  0
   -1.3162    1.9000    1.2004 H   0  0  0  0  0  0  0  0  0  0  0  0
    0.0123    3.7338    0.2199 H   0  0  0  0  0  0  0  0  0  0  0  0
    0.6033    3.3963    1.8532 H   0  0  0  0  0  0  0  0  0  0  0  0
    1.5317    2.8095    0.4107 H   0  0  0  0  0  0  0  0  0  0  0  0
   -1.0078    0.1083   -0.5080 H   0  0  0  0  0  0  0  0  0  0  0  0
    0.5928    0.7891   -0.9715 H   0  0  0  0  0  0  0  0  0  0  0  0
    2.7209    1.7568    1.9999 H   0  0  0  0  0  0  0  0  0  0  0  0
    0.8644    1.8039    3.4164 H   0  0  0  0  0  0  0  0  0  0  0  0
    0.4117    0.2404    3.8686 H   0  0  0  0  0  0  0  0  0  0  0  0
   -2.1435    2.2103   -1.2076 H   0  0  0  0  0  0  0  0  0  0  0  0
   -1.2277    1.4221   -2.5462 H   0  0  0  0  0  0  0  0  0  0  0  0
   -0.5550    2.8840   -1.7640 H   0  0  0  0  0  0  0  0  0  0  0  0
  1  2  1  0  0  0  0
  1 10  1  0  0  0  0
  1 15  1  0  0  0  0
  1 16  1  0  0  0  0
  2  3  1  0  0  0  0
  2  9  1  0  0  0  0
  2 11  1  1  0  0  0
  3  4  1  0  0  0  0
  3  7  1  0  0  0  0
  3  8  1  6  0  0  0
  4  5  1  0  0  0  0
  4  6  2  0  0  0  0
  5 17  1  0  0  0  0
  7 18  1  0  0  0  0
  7 19  1  0  0  0  0
  9 12  1  0  0  0  0
  9 13  1  0  0  0  0
  9 14  1  0  0  0  0
 10 20  1  0  0  0  0
 10 21  1  0  0  0  0
 10 22  1  0  0  0  0
M  END
