
 OpenBabel08152411173D

 23 23  0  0  0  0  0  0  0  0999 V2000
    2.7053    0.4007   -3.0939 N   0  0  0  0  0  0  0  0  0  0  0  0
    2.7126   -0.2723   -1.7973 C   0  0  0  0  0  0  0  0  0  0  0  0
    3.5292    0.5278   -0.7705 C   0  0  2  0  0  0  0  0  0  0  0  0
    3.5467   -0.1709    0.4466 O   0  0  0  0  0  0  0  0  0  0  0  0
    2.9546    1.9137   -0.5574 C   0  0  0  0  0  0  0  0  0  0  0  0
    1.6673    2.0834   -0.0177 C   0  0  0  0  0  0  0  0  0  0  0  0
    1.1406    3.3690    0.1839 C   0  0  0  0  0  0  0  0  0  0  0  0
   -0.0942    3.5240    0.7060 O   0  0  0  0  0  0  0  0  0  0  0  0
    1.9069    4.4980   -0.1588 C   0  0  0  0  0  0  0  0  0  0  0  0
    1.4328    5.7491    0.0203 O   0  0  0  0  0  0  0  0  0  0  0  0
    3.1875    4.3293   -0.6952 C   0  0  0  0  0  0  0  0  0  0  0  0
    3.7101    3.0488   -0.8916 C   0  0  0  0  0  0  0  0  0  0  0  0
    4.5693    0.5893   -1.1696 H   0  0  0  0  0  0  0  0  0  0  0  0
    2.1399   -0.1710   -3.7622 H   0  0  0  0  0  0  0  0  0  0  0  0
    3.6831    0.4475   -3.4627 H   0  0  0  0  0  0  0  0  0  0  0  0
    3.1582   -1.2860   -1.9111 H   0  0  0  0  0  0  0  0  0  0  0  0
    1.6664   -0.3977   -1.4435 H   0  0  0  0  0  0  0  0  0  0  0  0
    4.2902    0.2084    0.9843 H   0  0  0  0  0  0  0  0  0  0  0  0
    1.0748    1.2175    0.2509 H   0  0  0  0  0  0  0  0  0  0  0  0
   -0.6474    2.7705    0.9572 H   0  0  0  0  0  0  0  0  0  0  0  0
    0.5563    5.9295    0.3879 H   0  0  0  0  0  0  0  0  0  0  0  0
    3.7818    5.1949   -0.9603 H   0  0  0  0  0  0  0  0  0  0  0  0
    4.7045    2.9450   -1.3077 H   0  0  0  0  0  0  0  0  0  0  0  0
  1  2  1  0  0  0  0
  1 14  1  0  0  0  0
  1 15  1  0  0  0  0
  2 16  1  0  0  0  0
  2 17  1  0  0  0  0
  3  5  1  0  0  0  0
  3 13  1  6  0  0  0
  3  4  1  0  0  0  0
  3  2  1  0  0  0  0
  4 18  1  0  0  0  0
  5  6  2  0  0  0  0
  6  7  1  0  0  0  0
  6 19  1  0  0  0  0
  7  8  1  0  0  0  0
  7  9  2  0  0  0  0
  8 20  1  0  0  0  0
  9 10  1  0  0  0  0
  9 11  1  0  0  0  0
 10 21  1  0  0  0  0
 11 12  2  0  0  0  0
 11 22  1  0  0  0  0
 12  5  1  0  0  0  0
 12 23  1  0  0  0  0
M  END
